units(length='cm', time='s', quantity='mol', act_energy='kcal/mol')

ideal_gas(name='gas',
          elements="H D T C Ci O Oi N Ne Ar He Si S F Cl Br I X",
          species="""N2          Ar          He
                     C7H16(1)    O2(2)
                     O(5)        CO2(7)
                     H2(13)      H(14)       OH(15)""",
          reactions='all',
          transport='Mix',
          initial_state=state(temperature=300.0, pressure=OneAtm))

#-------------------------------------------------------------------------------
# Element data
#-------------------------------------------------------------------------------

element(symbol='Ci', atomic_mass=13.003)
element(symbol='D', atomic_mass=2.014)
element(symbol='Oi', atomic_mass=17.999)
element(symbol='T', atomic_mass=3.016)
element(symbol='X', atomic_mass=195.083)
#-------------------------------------------------------------------------------
# Species data
#-------------------------------------------------------------------------------

species(name='N2',
        atoms='N:2',
        thermo=(NASA([100.00, 1817.05],
                     [ 3.61262543E+00, -1.00892648E-03,  2.49897620E-06,
                      -1.43374896E-09,  2.58633809E-13, -1.05110286E+03,
                       2.65270528E+00]),
                NASA([1817.05, 5000.00],
                     [ 2.97592894E+00,  1.64137380E-03, -7.19704298E-07,
                       1.25374055E-10, -7.91499564E-15, -1.02585898E+03,
                       5.53740798E+00])),
        transport=gas_transport(geom='linear',
                                diam=3.621,
                                well_depth=97.53,
                                polar=1.76,
                                rot_relax=4.0))

species(name='Ar',
        atoms='Ar:1',
        thermo=(NASA([100.00, 4762.74],
                     [ 2.50000000E+00, -1.87769028E-11,  2.35957382E-14,
                      -9.62803665E-18,  1.20727680E-21, -7.45000000E+02,
                       4.36630362E+00]),
                NASA([4762.74, 5000.00],
                     [ 2.87626762E+00, -3.12580154E-04,  9.73654773E-08,
                      -1.34776059E-11,  6.99515521E-16, -1.10730235E+03,
                       1.95965953E+00])),
        transport=gas_transport(geom='atom',
                                diam=3.33,
                                well_depth=136.501))

species(name='He',
        atoms='He:1',
        thermo=(NASA([100.00, 4762.74],
                     [ 2.50000000E+00, -1.87769028E-11,  2.35957382E-14,
                      -9.62803665E-18,  1.20727680E-21, -7.45000000E+02,
                       9.14221516E-01]),
                NASA([4762.74, 5000.00],
                     [ 2.87626762E+00, -3.12580154E-04,  9.73654773E-08,
                      -1.34776059E-11,  6.99515521E-16, -1.10730235E+03,
                      -1.49242258E+00])),
        transport=gas_transport(geom='atom',
                                diam=2.576,
                                well_depth=10.2))

species(name='C7H16(1)',
        atoms='C:7 H:16',
        thermo=(NASA([100.00, 1262.75],
                     [-2.94181528E-03,  7.69376326E-02, -3.48033705E-05,
                       1.86184391E-09,  2.01542087E-12, -2.57829331E+04,
                       3.00313064E+01]),
                NASA([1262.75, 5000.00],
                     [ 1.38380723E+01,  4.85940646E-02, -1.95472187E-05,
                       3.52831867E-09, -2.39060433E-13, -3.05142881E+04,
                      -4.48658921E+01])),
        transport=gas_transport(geom='nonlinear',
                                diam=6.366,
                                well_depth=402.997))

species(name='O2(2)',
        atoms='O:2',
        thermo=(NASA([100.00, 1087.71],
                     [ 3.53763685E+00, -1.22827511E-03,  5.36758628E-06,
                      -4.93128119E-09,  1.45955119E-12, -1.03799025E+03,
                       4.67179810E+00]),
                NASA([1087.71, 5000.00],
                     [ 3.16427277E+00,  1.69453633E-03, -8.00335204E-07,
                       1.59029939E-10, -1.14890928E-14, -1.04844563E+03,
                       6.08302729E+00])),
        transport=gas_transport(geom='linear',
                                diam=3.467,
                                well_depth=106.7))

species(name='O(5)',
        atoms='O:1',
        thermo=(NASA([100.00, 4762.74],
                     [ 2.50000000E+00, -1.87769028E-11,  2.35957382E-14,
                      -9.62803665E-18,  1.20727680E-21,  2.92267216E+04,
                       5.11106769E+00]),
                NASA([4762.74, 5000.00],
                     [ 2.87626762E+00, -3.12580154E-04,  9.73654773E-08,
                      -1.34776059E-11,  6.99515521E-16,  2.88644192E+04,
                       2.70442360E+00])),
        transport=gas_transport(geom='atom',
                                diam=2.75,
                                well_depth=80.0))

species(name='CO2(7)',
        atoms='C:1 O:2',
        thermo=(NASA([100.00, 988.19],
                     [ 3.27789791E+00,  2.75787976E-03,  7.12767589E-06,
                      -1.07852000E-08,  4.14216610E-12, -4.84756030E+04,
                       5.97857463E+00]),
                NASA([988.19, 5000.00],
                     [ 4.55073040E+00,  2.90725233E-03, -1.14641338E-06,
                       2.25793556E-10, -1.69522790E-14, -4.89860167E+04,
                      -1.45672026E+00])),
        transport=gas_transport(geom='linear',
                                diam=3.941,
                                well_depth=195.201))

species(name='H2(13)',
        atoms='H:2',
        thermo=(NASA([100.00, 1962.85],
                     [ 3.42253753E+00,  2.86648327E-04, -4.14667543E-07,
                       4.27545515E-10, -9.38112761E-14, -1.02978491E+03,
                      -3.86364800E+00]),
                NASA([1962.85, 5000.00],
                     [ 2.74217098E+00,  5.79561035E-04,  1.97192680E-07,
                      -6.41074329E-11,  4.95988421E-15, -5.52027985E+02,
                       4.14195865E-01])),
        transport=gas_transport(geom='linear',
                                diam=2.833,
                                well_depth=59.7))

species(name='H(14)',
        atoms='H:1',
        thermo=(NASA([100.00, 4762.74],
                     [ 2.50000000E+00, -1.87769028E-11,  2.35957382E-14,
                      -9.62803665E-18,  1.20727680E-21,  2.54727081E+04,
                      -4.59566260E-01]),
                NASA([4762.74, 5000.00],
                     [ 2.87626762E+00, -3.12580154E-04,  9.73654773E-08,
                      -1.34776059E-11,  6.99515521E-16,  2.51104058E+04,
                      -2.86621035E+00])),
        transport=gas_transport(geom='atom',
                                diam=2.05,
                                well_depth=145.0))

species(name='OH(15)',
        atoms='H:1 O:1',
        thermo=(NASA([100.00, 1005.26],
                     [ 3.48580083E+00,  1.33390756E-03, -4.70021880E-06,
                       5.64351291E-09, -2.06305753E-12,  3.41195681E+03,
                       1.99785890E+00]),
                NASA([1005.26, 5000.00],
                     [ 2.88223155E+00,  1.03872344E-03, -2.35672354E-07,
                       1.40277748E-11,  6.34181035E-16,  3.66956895E+03,
                       5.59065082E+00])),
        transport=gas_transport(geom='linear',
                                diam=2.75,
                                well_depth=80.0))

#-------------------------------------------------------------------------------
# Reaction data
#-------------------------------------------------------------------------------

# Reaction 1
reaction('O2(2) + H(14) <=> O(5) + OH(15)', [1.040000e+14, 0.0, 15.286])
